LTspice 24.0.12 for Windows
Circuit: * 4x4 Resistive Crossbar MVM - Modified Resistor Network
Start Time: Thu May 15 16:22:38 2025
solver = Normal
Maximum thread count: 8
tnom = 27
temp = 27
method = modified trap
Direct Newton iteration for .op point succeeded.
Total elapsed time: 0.041 seconds.

