
Spectre (R) Circuit Simulator
Version 18.1.0.464.isr11 64bit -- 21 Sep 2019
Copyright (C) 1989-2019 Cadence Design Systems, Inc. All rights reserved worldwide. Cadence and Spectre are registered trademarks of Cadence Design Systems, Inc. All others are the property of their respective holders.

Includes RSA BSAFE(R) Cryptographic or Security Protocol Software from RSA Security, Inc.

User: hector7   Host: mo.ece.pdx.edu   HostID: DA0A14CF   PID: 22160
Memory  available: 15.6146 GB  physical: 128.6828 GB
Linux   : CentOS Linux release 7.9.2009 (Core)
CPU Type: Intel Xeon Processor (Cascadelake)
All processors running at 2500.0 MHz
        Socket: Processors
        0:       0
        1:       1
        2:       2
        3:       3
        4:       4
        5:       5
        6:       6
        7:       7
        8:       8
        9:       9
        10:     10
        11:     11
        12:     12
        13:     13
        14:     14
        15:     15
        16:     16
        17:     17
        18:     18
        19:     19
        20:     20
        21:     21
        22:     22
        23:     23
        24:     24
        25:     25
        26:     26
        27:     27
        28:     28
        29:     29
        30:     30
        31:     31
        
System load averages (1min, 5min, 15min) : 24.5 %, 19.4 %, 17.9 %


Simulating `memcap_tb.scs' on mo.ece.pdx.edu at 4:09:48 PM, Thur May 15, 2025 (process id: 22160).
Current working directory: /u/hector7/ECE410/Spectre
Command line:
    /pkgs/cadence/2019-03/SPECTRE181/tools.lnx86/bin/spectre -64  \
        memcap_tb.scs

Loading /pkgs/cadence/2019-03/SPECTRE181/tools.lnx86/cmi/lib/64bit/5.0/libinfineon_sh.so ...
Loading /pkgs/cadence/2019-03/SPECTRE181/tools.lnx86/cmi/lib/64bit/5.0/libphilips_o_sh.so ...
Loading /pkgs/cadence/2019-03/SPECTRE181/tools.lnx86/cmi/lib/64bit/5.0/libphilips_sh.so ...
Loading /pkgs/cadence/2019-03/SPECTRE181/tools.lnx86/cmi/lib/64bit/5.0/libsparam_sh.so ...
Loading /pkgs/cadence/2019-03/SPECTRE181/tools.lnx86/cmi/lib/64bit/5.0/libstmodels_sh.so ...
Reading file:  /u/hector7/ECE410/Spectre/memcap_tb.scs
Reading file:  /pkgs/cadence/2019-03/SPECTRE181/tools.lnx86/spectre/etc/configs/spectre.cfg

Error found by spectre during circuit read-in.
    ERROR (SFE-874): "memcap_tb.scs" 10: 9: Unexpected operator "*". Expected end of file or end of line. Cannot run the simulation because of syntax error. Correct the error and rerun the simulation.
    ERROR (SFE-684): "memcap_tb.scs" 10: Badly formed global statement.

Reading file:  /u/hector7/ECE410/Spectre/memcapacitor.vams
Reading file:  /pkgs/cadence/2019-03/SPECTRE181/tools.lnx86/spectre/etc/ahdl/disciplines.vams
Reading file:  /pkgs/cadence/2019-03/SPECTRE181/tools.lnx86/spectre/etc/ahdl/constants.vams

Error found by spectre during circuit read-in.
    ERROR (SFE-874): "memcap_tb.scs" 32: 29: Unexpected operator "*". Expected block statement, end of file or end of line. Cannot run the simulation because of syntax error. Correct the error and rerun the simulation.
    ERROR (SFE-874): "memcap_tb.scs" 52: 6: Unexpected open parenthesis "(". Expected end of file or end of line. Cannot run the simulation because of syntax error. Correct the error and rerun the simulation.

Time for NDB Parsing: CPU = 114.16 ms, elapsed = 486.021 ms.
Time accumulated: CPU = 186.748 ms, elapsed = 486.028 ms.
Peak resident memory used = 56.3 Mbytes.


Aggregate audit (4:09:48 PM, Thur May 15, 2025):
Time used: CPU = 188 ms, elapsed = 488 ms, util. = 38.5%.
Time spent in licensing: elapsed = 160 ms, percentage of total = 32.8%.
Peak memory used = 56.4 Mbytes.
Simulation started at: 4:09:48 PM, Thur May 15, 2025, ended at: 4:09:48 PM, Thur May 15, 2025, with elapsed time (wall clock): 488 ms.
spectre completes with 4 errors, 0 warnings, and 0 notices.
spectre terminated prematurely due to fatal error.
